kpg193_v2_0_2029/network/m/KPG193_ver2_0_2029.m
function mpc = KPG193_ver2_0_2029
% Generated from KPG193_ver1_6 ACOPF hourly result.
% Bus voltage angle Va is in degrees, matching MATPOWER case format.
mpc.version = '2';

%-----  Power Flow Data  -----%%
% system MVA base
mpc.baseMVA = 100;

% bus data
%	bus_i	type	Pd	Qd	Gs	Bs	area	Vm	Va	baseKV	zone	Vmax	Vmin
mpc.bus = [
	1	1	66.0806663186	6.60806663186	0	0	1	0.999141096937	-8.88972478022	154	1	1.1	0.9	;
	2	1	79.8669992273	7.98669992273	0	0	1	1.0023853016	-10.6293603589	345	1	1.05	0.95	;
	3	1	366.301100004	36.6301100004	0	0	1	1.00282972829	-10.5577853653	345	1	1.05	0.95	;
	4	1	84.9586517469	8.49586517469	0	0	1	1.00274888491	-11.0486092947	345	1	1.05	0.95	;
	5	1	82.3750477265	9.59368051051	0	0	1	1.0065422782	-1.52523480943	154	1	1.1	0.9	;
	6	1	81.6269747801	8.16269747801	0	0	1	1.00009047627	-12.2208654538	154	1	1.1	0.9	;
	7	1	550.772435435	55.0778531025	0	0	1	1.00377012535	-11.1498879	345	1	1.05	0.95	;
	8	1	1257.24391336	125.724391336	0	0	1	0.99972017772	-12.0744117598	345	1	1.05	0.95	;
	9	1	318.295533402	31.8295533402	0	0	1	1.00412712193	-11.5807936687	154	1	1.1	0.9	;
	10	2	699.282727499	69.9282727499	0	0	1	1.00046248253	-11.9921107654	154	1	1.1	0.9	;
	11	1	579.202875927	57.9202875927	0	0	1	1.00014905148	-12.220797919	345	1	1.05	0.95	;
	12	1	317.815565934	31.7815565934	0	0	1	1.00396513197	-11.5976098545	154	1	1.1	0.9	;
	13	1	342.549467434	34.2549467434	0	0	1	1.00424529661	-11.5802436614	154	1	1.1	0.9	;
	14	1	367.358977323	36.7358977323	0	0	1	1.00379475312	-11.6159791881	345	1	1.05	0.95	;
	15	1	108.671946667	10.8671946667	0	0	1	1.00494450139	-11.4994403989	154	1	1.1	0.9	;
	16	1	468.163028107	46.8163028107	0	0	1	1.00528506219	-11.4650954032	345	1	1.05	0.95	;
	17	1	504.823993159	50.4823993159	0	0	1	1.00475808706	-11.5473583083	345	1	1.05	0.95	;
	18	1	527.057198713	52.7057198713	0	0	1	1.00446647247	-11.5802113688	345	1	1.05	0.95	;
	19	2	496.095903637	49.6189486522	0	0	1	1.00381813724	-11.6154804418	345	1	1.05	0.95	;
	20	2	253.733991772	25.6241671802	0	0	1	1.00373770659	-11.1334733964	154	1	1.1	0.9	;
	21	2	768.652677287	77.345085988	0	0	1	1.00153404458	-11.9318730154	345	1	1.05	0.95	;
	22	1	624.580001833	62.4580001833	0	0	1	1.00519265531	-11.4570631708	345	1	1.05	0.95	;
	23	1	365.498854439	36.5498854439	0	0	1	1.00303500574	-11.6541436404	345	1	1.05	0.95	;
	24	1	597.963501201	59.7963501201	0	0	1	1.00226737498	-11.801586531	154	1	1.1	0.9	;
	25	1	483.556839495	48.3556839495	0	0	1	1.00233734996	-11.8341650978	154	1	1.1	0.9	;
	26	2	570.736301002	57.0736301002	0	0	1	1.00293635766	-11.6986055944	345	1	1.05	0.95	;
	27	2	-78.6998924413	3.25101142069	0	0	1	1.00353465251	-11.4189314396	345	1	1.05	0.95	;
	28	1	129.392415393	12.9392415393	0	0	1	1.00874112465	-7.04104255951	765	1	1.05	0.95	;
	29	1	629.260825845	62.9262174104	0	0	1	1.00362406638	-11.5295926162	345	1	1.05	0.95	;
	30	1	488.924821833	48.8924821833	0	0	1	1.00356880765	-11.5325209044	154	1	1.1	0.9	;
	31	1	397.632179747	39.7636616883	0	0	1	1.00213539509	-11.7208688244	154	1	1.1	0.9	;
	32	1	163.946730108	16.3946730108	0	0	1	1.00280359182	-11.6681417497	345	1	1.05	0.95	;
	33	1	472.770018753	47.2770018753	0	0	1	1.00256300821	-11.6809250708	154	1	1.1	0.9	;
	34	2	1057.29766532	105.730076118	0	0	1	1.00313608227	-11.6086457226	345	1	1.05	0.95	;
	35	1	644.116626673	64.4116626673	0	0	1	0.999422519508	-11.6816080823	154	1	1.1	0.9	;
	36	2	743.062119375	74.3062119375	0	0	1	1.0036240921	-11.5091960174	345	1	1.05	0.95	;
	37	1	910.979605836	91.0979605836	0	0	1	1.0013792922	-11.5193381269	345	1	1.05	0.95	;
	38	1	368.957138118	36.8957138118	0	0	1	1.00180181889	-10.6332367386	345	1	1.05	0.95	;
	39	1	711.822197676	71.1822197676	0	0	1	0.992535363743	-13.090702381	154	1	1.1	0.9	;
	40	2	1072.31272205	107.900122276	0	0	1	0.998995207845	-10.5267814998	345	1	1.05	0.95	;
	41	1	194.962458348	19.4962458348	0	0	1	0.993090458589	-6.08573804033	154	1	1.1	0.9	;
	42	2	1189.858131	118.9858131	0	0	1	0.990399775521	-9.13259350193	154	1	1.1	0.9	;
	43	2	620.150401117	62.0166050859	0	0	1	0.995230941172	-12.494241143	154	1	1.1	0.9	;
	44	1	191.331366639	19.1338732415	0	0	1	0.998942776181	-11.3543293637	345	1	1.05	0.95	;
	45	1	350.331797095	35.0331797095	0	0	1	1.00138714514	-10.8912588997	345	1	1.05	0.95	;
	46	1	1102.09371803	110.209371803	0	0	1	1.00196970668	-10.9636076659	345	1	1.05	0.95	;
	47	1	2791.43053393	279.143382133	0	0	1	0.993146330767	-11.8724767244	345	1	1.05	0.95	;
	48	2	194.714935113	19.4714935113	0	0	1	1.00141142119	-10.6152090719	154	1	1.1	0.9	;
	49	1	398.373069634	39.8373069634	0	0	1	1.00102970931	-10.3220310205	154	1	1.1	0.9	;
	50	1	473.735430496	47.3735430496	0	0	1	1.00399054391	-9.70101492544	765	1	1.05	0.95	;
	51	1	1897.90332326	189.790332326	0	0	1	1.00310821045	-10.1835036298	345	1	1.05	0.95	;
	52	2	436.763283216	43.6763283216	0	0	2	0.99504214821	-7.2797871557	154	1	1.1	0.9	;
	53	2	906.45718563	90.645718563	0	0	2	1.00408059067	-4.98369757258	765	1	1.05	0.95	;
	54	1	389.467140967	38.9467140967	0	0	2	1.00106955715	-9.15087153053	345	1	1.05	0.95	;
	55	1	1133.6691416	113.367106795	0	0	2	0.998411940954	-8.0103624342	345	1	1.05	0.95	;
	56	1	157.507213997	15.7507213997	0	0	2	0.995912674678	-8.78855353587	154	1	1.1	0.9	;
	57	1	1785.02848675	178.50299542	0	0	2	0.997687489448	-8.21101278706	345	1	1.05	0.95	;
	58	1	1336.22005919	133.622416771	0	0	2	1.00271717686	-3.86860722751	345	1	1.05	0.95	;
	59	2	121.311464102	12.1333258022	0	0	2	1.00380519027	-2.54095920504	345	1	1.05	0.95	;
	60	1	176.698444346	17.6698444346	0	0	2	1.00101344754	-6.45762320134	345	1	1.05	0.95	;
	61	1	845.933991727	84.5934269462	0	0	2	1.00081123611	-9.08077283672	154	1	1.1	0.9	;
	62	1	995.665323217	99.5666622171	0	0	2	1.00265437302	-8.71275639711	765	1	1.05	0.95	;
	63	1	137.944058648	13.7944058648	0	0	2	1.00357633562	-5.68920595648	765	1	1.05	0.95	;
	64	1	502.625517393	50.2625517393	0	0	2	1.00066891224	-7.70145209148	345	1	1.05	0.95	;
	65	1	86.2759116565	11.9532526488	0	0	3	0.988822952943	4.50879034626	154	1	1.1	0.9	;
	66	1	29.3953278033	3.45297757742	0	0	3	0.996697856277	-3.4154904553	154	1	1.1	0.9	;
	67	1	24.8368356674	2.73578611711	0	0	3	0.991897902191	-0.785205547641	154	1	1.1	0.9	;
	68	1	27.5443266043	4.31935868863	0	0	3	0.991211340133	6.35238363795	345	1	1.05	0.95	;
	69	1	33.387611506	4.49450271551	0	0	3	0.990041484739	1.17399360786	154	1	1.1	0.9	;
	70	1	247.600680103	24.7893168305	0	0	3	0.996294321643	-3.30287336992	154	1	1.1	0.9	;
	71	2	279.56746483	27.956746483	0	0	3	0.992536792587	8.47721751169	345	1	1.05	0.95	;
	72	1	97.6054531195	9.76054531195	0	0	3	0.992664610962	-2.72484321072	154	1	1.1	0.9	;
	73	2	309.070235037	31.6970857332	0	0	3	0.993971818049	10.1755586847	345	1	1.05	0.95	;
	74	1	21.2039828718	9.01418451871	0	0	3	0.993199471168	-3.07859813127	154	1	1.1	0.9	;
	75	2	155.21689761	18.7072370727	0	0	3	0.996654174383	12.1867573255	345	1	1.05	0.95	;
	76	1	64.3052564839	8.3278054335	0	0	3	0.986731637448	4.9012200086	154	1	1.1	0.9	;
	77	1	343.43322496	34.343322496	0	0	3	0.991626086368	-4.54351722145	154	1	1.1	0.9	;
	78	1	-316.296334873	8.31198670722	0	0	3	1.00287762717	0.929463113494	154	1	1.1	0.9	;
	79	1	151.513808726	15.1513808726	0	0	3	0.987316955639	2.27026828666	154	1	1.1	0.9	;
	80	1	-1572.71761641	4.02037480421	0	0	3	1.00628655492	7.1196016673	765	1	1.05	0.95	;
	81	1	219.439925094	21.9444711226	0	0	3	0.990872935381	-0.943409424204	345	1	1.05	0.95	;
	82	2	-78.8143168371	9.54159394014	0	0	3	1.01075475664	10.2967715814	765	1	1.05	0.95	;
	83	1	250.918604526	25.0921984946	0	0	3	0.982938329329	-0.579023467611	154	1	1.1	0.9	;
	84	1	355.359263423	36.6021356072	0	0	3	0.993662724002	-6.73646878258	345	1	1.05	0.95	;
	85	1	236.325013443	23.6325013443	0	0	3	0.994050411513	2.28166614569	154	1	1.1	0.9	;
	86	1	231.424768405	23.1425902704	0	0	3	0.996374964629	1.77333488532	345	1	1.05	0.95	;
	87	1	30.4642785173	5.29435128824	0	0	3	0.996614507173	0.87514931937	345	1	1.05	0.95	;
	88	1	-831.331341277	1.48868866482	0	0	3	1.00510850535	8.82921848424	154	1	1.1	0.9	;
	89	1	80.3006516397	8.03040057661	0	0	3	0.991799494108	-1.55607766783	154	1	1.1	0.9	;
	90	1	155.731586981	16.0825519018	0	0	3	0.996025124209	1.06452721554	154	1	1.1	0.9	;
	91	1	53.836730349	5.3836730349	0	0	3	0.998926430788	-8.2850367164	154	1	1.1	0.9	;
	92	1	-54.7526288588	2.73236489079	0	0	3	0.997798338651	1.82515839974	345	1	1.05	0.95	;
	93	1	106.523210569	10.6529305883	0	0	3	0.992804483938	-4.48443298442	154	1	1.1	0.9	;
	94	1	-254.885985022	3.93776748094	0	0	3	1.00210209583	6.59502232372	154	1	1.1	0.9	;
	95	1	60.5105400055	6.05105400055	0	0	3	0.997115565613	0.129031303465	345	1	1.05	0.95	;
	96	2	156.550906556	15.6550906556	0	0	4	1.00315470573	-5.11038660415	154	1	1.1	0.9	;
	97	1	48.7117190945	4.87117190945	0	0	4	1.00395163057	-4.45555274085	345	1	1.05	0.95	;
	98	1	248.628843667	25.1138354394	0	0	4	0.996934279413	-8.04342259043	154	1	1.1	0.9	;
	99	1	805.761390697	80.5761390697	0	0	4	0.995281738886	-8.28947975394	154	1	1.1	0.9	;
	100	2	188.828363148	18.8828363148	0	0	4	1.00611990116	-2.68938041743	345	1	1.05	0.95	;
	101	1	294.491124326	29.4491124326	0	0	4	0.996938513245	-7.64524394343	154	1	1.1	0.9	;
	102	1	86.6971468351	8.66971468351	0	0	4	1.00186620054	-6.54677980493	345	1	1.05	0.95	;
	103	1	90.8878290053	9.08878290053	0	0	4	1.00297755334	-4.53611886218	154	1	1.1	0.9	;
	104	1	192.002919762	19.2002919762	0	0	4	1.00206425984	-5.73976614277	345	1	1.05	0.95	;
	105	1	128.71272228	12.871272228	0	0	4	0.999637430962	-6.70572549764	154	1	1.1	0.9	;
	106	2	152.329141727	15.2329141727	0	0	4	1.000646301	-3.91991756517	154	1	1.1	0.9	;
	107	1	6.13448370816	2.89234456317	0	0	4	1.00090577813	-5.85268484992	345	1	1.05	0.95	;
	108	1	790.632457622	79.0632457622	0	0	4	0.998914144046	-4.77889630313	345	1	1.05	0.95	;
	109	1	414.02891424	41.402891424	0	0	4	0.999912536777	-4.94956086612	345	1	1.05	0.95	;
	110	1	242.293950899	24.2293950899	0	0	4	0.994701238681	-6.58016349175	154	1	1.1	0.9	;
	111	1	153.43552791	15.343552791	0	0	4	1.00056722642	-3.98686204479	345	1	1.05	0.95	;
	112	1	28.3663049711	2.83663049711	0	0	4	0.997091385915	-6.44807718205	154	1	1.1	0.9	;
	113	1	602.968236079	60.2968236079	0	0	4	0.994464827774	-6.55216254234	154	1	1.1	0.9	;
	114	1	66.5293802944	6.66970560753	0	0	4	0.99968826348	-4.371797059	154	1	1.1	0.9	;
	115	1	29.0839800975	2.90839800975	0	0	4	0.99656226486	-6.66485646276	154	1	1.1	0.9	;
	116	1	41.0569919287	4.10569919287	0	0	4	0.998833977106	-5.27789116035	154	1	1.1	0.9	;
	117	1	237.242843546	24.790789167	0	0	4	1.0000378165	-4.29575016051	154	1	1.1	0.9	;
	118	1	90.0358654112	9.00358654112	0	0	4	1.00500317259	-0.661073593746	154	1	1.1	0.9	;
	119	1	90.7041781454	9.07041781454	0	0	4	1.00469581623	-3.54217821233	345	1	1.05	0.95	;
	120	1	37.1908639312	3.71908639312	0	0	4	0.998547926084	-5.35036658507	154	1	1.1	0.9	;
	121	1	86.5498420594	8.65498420594	0	0	4	0.999532839421	-4.29762689951	154	1	1.1	0.9	;
	122	1	71.671846332	7.1671846332	0	0	4	1.00010203606	-4.07120865077	154	1	1.1	0.9	;
	123	1	58.2928598503	5.82928598503	0	0	4	0.999247966039	-5.10273436163	154	1	1.1	0.9	;
	124	2	113.284983138	11.3284983138	0	0	4	1.01216678139	2.4078657805	345	1	1.05	0.95	;
	125	1	24.1270428097	2.41270428097	0	0	4	0.998860352707	-5.27945068794	154	1	1.1	0.9	;
	126	1	401.942596514	40.1942596514	0	0	4	1.00124342859	-3.51079224606	345	1	1.05	0.95	;
	127	1	316.728455267	31.6728455267	0	0	4	0.999120714161	-4.34718952281	154	1	1.1	0.9	;
	128	1	478.545489772	47.8545489772	0	0	4	0.991253351609	-6.87122556663	154	1	1.1	0.9	;
	129	1	56.6412112765	5.66412112765	0	0	4	0.998100391656	-6.65330001582	154	1	1.1	0.9	;
	130	1	57.6556325638	7.16527841979	0	0	4	1.000374389	-4.43622588793	345	1	1.05	0.95	;
	131	1	183.621768804	18.3621768804	0	0	4	0.996025676333	-6.01892928843	154	1	1.1	0.9	;
	132	1	98.568944424	9.8568944424	0	0	4	0.998784320362	-6.45265713406	154	1	1.1	0.9	;
	133	1	282.405994729	29.5022090116	0	0	4	0.997717786735	-5.57793249193	345	1	1.05	0.95	;
	134	1	672.151193608	67.2151193608	0	0	4	0.998295033874	-5.09056056434	345	1	1.05	0.95	;
	135	1	142.394765612	14.2647426875	0	0	4	0.997834526315	-6.87397211731	154	1	1.1	0.9	;
	136	1	164.03770201	16.403770201	0	0	4	0.999686589141	-5.75852489934	345	1	1.05	0.95	;
	137	2	1943.69001129	195.218893842	0	0	4	0.995447649206	-5.78779294816	345	1	1.05	0.95	;
	138	1	42.1854987231	4.21854987231	0	0	4	0.997725173882	-6.59013913599	154	1	1.1	0.9	;
	139	1	44.7563262522	4.47563262522	0	0	4	0.999381240887	-6.64055462174	154	1	1.1	0.9	;
	140	1	41.0631408993	5.17560415013	0	0	4	0.997380194426	-6.83809819996	154	1	1.1	0.9	;
	141	1	53.7973969154	5.37973969154	0	0	4	0.997703633338	-6.80351535143	154	1	1.1	0.9	;
	142	1	73.0992303198	7.30992303198	0	0	4	0.997493926586	-6.51317724184	154	1	1.1	0.9	;
	143	1	105.069398386	10.5101921895	0	0	4	0.996687164764	-7.24478647348	154	1	1.1	0.9	;
	144	1	48.2343959044	4.83479026157	0	0	4	0.996955300746	-7.4265912497	154	1	1.1	0.9	;
	145	1	112.87064302	15.0183086829	0	0	4	0.991071128165	-8.66964907228	154	1	1.1	0.9	;
	146	1	26.5465163849	4.39250607218	0	0	5	0.992491615232	-2.18500798159	154	1	1.1	0.9	;
	147	1	59.5426388043	5.95426388043	0	0	5	0.998145105377	-6.48035662257	154	1	1.1	0.9	;
	148	1	322.37070473	32.237070473	0	0	5	0.98346315672	-6.9932063833	154	1	1.1	0.9	;
	149	1	1275.33217164	127.533217164	0	0	5	0.988818828667	-5.45755238139	345	1	1.05	0.95	;
	150	1	665.356629855	70.9210045147	0	0	5	0.995788918212	-0.849370585653	345	1	1.05	0.95	;
	151	1	550.014442798	59.9394299302	0	0	5	0.997067859832	-0.947699286798	345	1	1.05	0.95	;
	152	1	268.630707599	26.8630707599	0	0	5	0.994143340296	-4.15290219862	345	1	1.05	0.95	;
	153	1	210.501440691	21.0501440691	0	0	5	0.992782111544	-2.88266151451	154	1	1.1	0.9	;
	154	1	144.080867081	14.408135458	0	0	5	0.989530679189	-5.37372136778	154	1	1.1	0.9	;
	155	1	403.724692137	40.3733796981	0	0	5	0.991093001476	-5.254355903	154	1	1.1	0.9	;
	156	1	434.952878361	43.4952878361	0	0	5	0.994104412947	-3.87728677573	154	1	1.1	0.9	;
	157	1	204.760679826	20.4760679826	0	0	5	0.991537684104	-5.32775534198	154	1	1.1	0.9	;
	158	1	58.978230439	53.5681747519	0	0	5	0.997288191504	-0.370473313564	154	1	1.1	0.9	;
	159	1	372.571261856	37.2571261856	0	0	5	0.996226084905	-2.91090098476	345	1	1.05	0.95	;
	160	1	1063.30782291	106.330782291	0	0	5	0.995226813265	-5.40448119627	154	1	1.1	0.9	;
	161	1	175.332727785	17.5332727785	0	0	5	1.00004067241	-3.40449529761	345	1	1.05	0.95	;
	162	1	63.2655162861	6.32655162861	0	0	5	0.998415856072	-4.62934086862	154	1	1.1	0.9	;
	163	1	66.5428519451	6.65428519451	0	0	5	1.0006186553	-1.62198502297	345	1	1.05	0.95	;
	164	1	53.4566595303	5.59616604184	0	0	5	0.998777493913	-4.17382566429	154	1	1.1	0.9	;
	165	1	1631.73389588	163.173653876	0	0	5	0.998777974132	-0.696186721463	345	1	1.05	0.95	;
	166	2	520.604365181	52.4115726478	0	0	5	1.0086436037	2.40925276752	345	1	1.05	0.95	;
	167	2	2177.76188452	217.776525539	0	0	5	1.00791201844	2.21897792238	345	1	1.05	0.95	;
	168	1	138.686130461	13.8686130461	0	0	5	1.00642889826	-0.00952006215373	765	1	1.05	0.95	;
	169	1	39.0841321685	3.90841321685	0	0	5	0.999429643055	-4.43510393533	154	1	1.1	0.9	;
	170	1	155.288457003	17.1743142988	0	0	5	0.99988852984	-1.23144790654	154	1	1.1	0.9	;
	171	1	28.3668834221	4.80772629867	0	0	5	1.00223336368	-3.25336201513	345	1	1.05	0.95	;
	172	1	463.777097794	50.7041388805	0	0	5	1.00003189081	0.380158579241	154	1	1.1	0.9	;
	173	1	45.4650196014	5.26153312141	0	0	5	1.00153289295	-3.16709241245	345	1	1.05	0.95	;
	174	1	381.533665652	38.1533665652	0	0	5	0.999204147342	-2.97757976073	345	1	1.05	0.95	;
	175	2	172.096951523	17.2987089498	0	0	5	1.01440044506	4.87445292269	765	1	1.05	0.95	;
	176	1	501.279716494	50.1279716494	0	0	5	0.997779673198	-2.30307110632	345	1	1.05	0.95	;
	177	1	640.934344264	64.0937873544	0	0	5	0.996593701193	-1.815295475	345	1	1.05	0.95	;
	178	1	724.487333019	72.4488914711	0	0	5	0.991268767823	-3.04205898706	154	1	1.1	0.9	;
	179	1	386.699290633	38.6699290633	0	0	5	1.00840131538	3.04655767015	345	1	1.05	0.95	;
	180	1	361.678176828	36.1678176828	0	0	5	0.996927613965	-3.47427213896	154	1	1.1	0.9	;
	181	1	327.884569296	32.7884569296	0	0	5	1.00628430841	2.23968653067	345	1	1.05	0.95	;
	182	1	591.934114059	59.1940791456	0	0	5	0.992038606547	-3.03340110474	345	1	1.05	0.95	;
	183	1	267.774438495	26.7776681311	0	0	5	0.996516481217	-1.82626076526	345	1	1.05	0.95	;
	184	1	529.072400435	52.9077856063	0	0	5	1.00817795056	3.0096967079	345	1	1.05	0.95	;
	185	1	302.359873738	30.2359873738	0	0	5	1.00590375528	2.26516187899	154	1	1.1	0.9	;
	186	2	452.756667011	45.277135054	0	0	5	1.00586863833	2.16675097698	345	1	1.05	0.95	;
	187	1	62.5762921062	6.25762921062	0	0	5	1.00584210162	2.15828148167	345	1	1.05	0.95	;
	188	1	57.1297998455	5.71509811111	0	0	5	1.00024986781	-3.90104371229	154	1	1.1	0.9	;
	189	1	103.530442343	10.4323503998	0	0	5	0.993725806736	-2.48052232181	154	1	1.1	0.9	;
	190	3	185.92125578	18.7196203472	0	0	5	1	0	345	1	1.05	0.95	;
	191	1	260.53108032	26.0537764729	0	0	5	0.990473215043	-3.41500573618	154	1	1.1	0.9	;
	192	1	130.136949987	13.0140248522	0	0	5	0.992650544082	-2.73431065744	154	1	1.1	0.9	;
	193	2	37.1212302395	3.71212302395	0	0	5	1.0037266844	-2.64296562275	345	1	1.05	0.95	;
];

% generator data
%	bus	Pg	Qg	Qmax	Qmin	Vg	mBase	status	Pmax	Pmin	Pc1	Pc2	Qc1min	Qc1max	Qc2min	Qc2max	ramp_agc	ramp_10	ramp_30	ramp_q	apf
mpc.gen = [
	3	0	0	362.5	-362.5	1.00282972829	100	0	725	377	0	0	0	0	0	0	0	120.8333333	362.5	362.5	0	;
	3	0	0	362.5	-362.5	1.00282972829	100	0	725	377	0	0	0	0	0	0	0	120.8333333	362.5	362.5	0	;
	3	0	0	437.1	-437.1	1.00282972829	100	0	874.2	454.584	0	0	0	0	0	0	0	145.7	437.1	437.1	0	;
	4	0	0	262.15	-262.15	1.00274888491	100	0	524.3	272.636	0	0	0	0	0	0	0	87.38333333	262.15	262.15	0	;
	4	0	0	429.2	-429.2	1.00274888491	100	0	858.4	446.368	0	0	0	0	0	0	0	143.0666667	429.2	429.2	0	;
	4	0	0	429.2	-429.2	1.00274888491	100	0	858.4	446.368	0	0	0	0	0	0	0	143.0666667	429.2	429.2	0	;
	8	0	0	423.8	-423.8	0.99972017772	100	0	847.6	440.752	0	0	0	0	0	0	0	141.2666667	423.8	423.8	0	;
	8	0	0	423.8	-423.8	0.99972017772	100	0	847.6	440.752	0	0	0	0	0	0	0	141.2666667	423.8	423.8	0	;
	8	0	0	257.75	-257.75	0.99972017772	100	0	515.5	268.06	0	0	0	0	0	0	0	85.91666667	257.75	257.75	0	;
	9	0	0	57.705	-57.705	1.00412712193	100	0	115.41	60.0132	0	0	0	0	0	0	0	19.235	57.705	57.705	0	;
	9	0	0	18.5	-18.5	1.00412712193	100	0	37	19.24	0	0	0	0	0	0	0	6.166666667	18.5	18.5	0	;
	10	0	0	300	-300	1.00046248253	100	0	600	312	0	0	0	0	0	0	0	100	300	300	0	;
	10	273.640147915	-4.46617795137	150	-150	1.00046248253	100	1	300	156	0	0	0	0	0	0	0	50	150	150	0	;
	19	0	0	184.5865	-184.5865	1.00381813724	100	0	369.173	191.96996	0	0	0	0	0	0	0	61.52883333	184.5865	184.5865	0	;
	19	334.243443639	-15.4113260367	184.5865	-184.5865	1.00381813724	100	1	369.173	191.96996	0	0	0	0	0	0	0	61.52883333	184.5865	184.5865	0	;
	20	322.877511154	-5.02841440085	181.9055	-181.9055	1.00373770659	100	1	363.811	189.18172	0	0	0	0	0	0	0	60.63516667	181.9055	181.9055	0	;
	21	420.628777517	-6.14952682011	225	-225	1.00153404458	100	1	450	234	0	0	0	0	0	0	0	75	225	225	0	;
	21	0	0	225	-225	1.00153404458	100	0	450	234	0	0	0	0	0	0	0	75	225	225	0	;
	21	0	0	225	-225	1.00153404458	100	0	450	234	0	0	0	0	0	0	0	75	225	225	0	;
	21	0	0	225	-225	1.00153404458	100	0	450	234	0	0	0	0	0	0	0	75	225	225	0	;
	24	0	0	10.5	-10.5	1.00226737498	100	0	21	10.92	0	0	0	0	0	0	0	3.5	10.5	10.5	0	;
	26	0	0	0	0	1.00293635766	100	0	0	0	0	0	0	0	0	0	0	0	0	0	0	;
	27	103.745121587	-1.90802294812	63.5	-63.5	1.00353465251	100	1	127	66.04	0	0	0	0	0	0	0	21.16666667	63.5	63.5	0	;
	27	151.948590644	-2.44062260325	93.65	-93.65	1.00353465251	100	1	187.3	97.396	0	0	0	0	0	0	0	31.21666667	93.65	93.65	0	;
	34	192.542881095	-1.77178066684	112.5	-112.5	1.00313608227	100	1	225	117	0	0	0	0	0	0	0	37.5	112.5	112.5	0	;
	34	186.52030078	-1.77178066684	112.5	-112.5	1.00313608227	100	1	225	117	0	0	0	0	0	0	0	37.5	112.5	112.5	0	;
	34	186.52030078	-1.77178066684	112.5	-112.5	1.00313608227	100	1	225	117	0	0	0	0	0	0	0	37.5	112.5	112.5	0	;
	34	192.542881095	-1.77178066684	112.5	-112.5	1.00313608227	100	1	225	117	0	0	0	0	0	0	0	37.5	112.5	112.5	0	;
	34	186.52030078	-1.77178066684	112.5	-112.5	1.00313608227	100	1	225	117	0	0	0	0	0	0	0	37.5	112.5	112.5	0	;
	34	194.032628575	-1.77178066684	112.5	-112.5	1.00313608227	100	1	225	117	0	0	0	0	0	0	0	37.5	112.5	112.5	0	;
	34	0	0	112.5	-112.5	1.00313608227	100	0	225	117	0	0	0	0	0	0	0	37.5	112.5	112.5	0	;
	34	190.816686372	-1.77178066684	112.5	-112.5	1.00313608227	100	1	225	117	0	0	0	0	0	0	0	37.5	112.5	112.5	0	;
	34	0	0	251.7695	-251.7695	1.00313608227	100	0	503.539	261.84028	0	0	0	0	0	0	0	83.92316667	251.7695	251.7695	0	;
	34	0	0	254.454	-254.454	1.00313608227	100	0	508.908	264.63216	0	0	0	0	0	0	0	84.818	254.454	254.454	0	;
	34	0	0	225	-225	1.00313608227	100	0	450	234	0	0	0	0	0	0	0	75	225	225	0	;
	34	414.21074028	-3.6162932254	225	-225	1.00313608227	100	1	450	234	0	0	0	0	0	0	0	75	225	225	0	;
	34	0	0	225	-225	1.00313608227	100	0	450	234	0	0	0	0	0	0	0	75	225	225	0	;
	34	0	0	287.3	-287.3	1.00313608227	100	0	574.6	298.792	0	0	0	0	0	0	0	95.76666667	287.3	287.3	0	;
	34	546.960928982	-12.9903228173	287.3	-287.3	1.00313608227	100	1	574.6	298.792	0	0	0	0	0	0	0	95.76666667	287.3	287.3	0	;
	34	0	0	187.8	-187.8	1.00313608227	100	0	375.6	195.312	0	0	0	0	0	0	0	62.6	187.8	187.8	0	;
	34	335.605797002	-0.583264723006	187.8	-187.8	1.00313608227	100	1	375.6	195.312	0	0	0	0	0	0	0	62.6	187.8	187.8	0	;
	34	0	0	187.8	-187.8	1.00313608227	100	0	375.6	195.312	0	0	0	0	0	0	0	62.6	187.8	187.8	0	;
	36	0	0	0	0	1.0036240921	100	0	0	0	0	0	0	0	0	0	0	0	0	0	0	;
	36	310.996514797	0.648931147702	174.137	-174.137	1.0036240921	100	1	348.274	181.10248	0	0	0	0	0	0	0	58.04566667	174.137	174.137	0	;
	36	0	0	206.3	-206.3	1.0036240921	100	0	412.6	214.552	0	0	0	0	0	0	0	68.76666667	206.3	206.3	0	;
	36	0	0	73.157	-73.157	1.0036240921	100	0	146.314	76.08328	0	0	0	0	0	0	0	24.38566667	73.157	73.157	0	;
	37	0	0	12	-12	1.0013792922	100	0	24	12.48	0	0	0	0	0	0	0	4	12	12	0	;
	39	0	0	240.845	-240.845	0.992535363743	100	0	481.69	250.4788	0	0	0	0	0	0	0	80.28166667	240.845	240.845	0	;
	39	0	0	240.845	-240.845	0.992535363743	100	0	481.69	250.4788	0	0	0	0	0	0	0	80.28166667	240.845	240.845	0	;
	40	0	0	30	-30	0.998995207845	100	0	60	31.2	0	0	0	0	0	0	0	10	30	30	0	;
	40	0	0	375.6	-375.6	0.998995207845	100	0	751.2	390.624	0	0	0	0	0	0	0	125.2	375.6	375.6	0	;
	40	779.641157204	-23.1198832139	400	-400	0.998995207845	100	1	800	320	0	0	0	0	0	0	0	88	264	400	0	;
	40	779.641157204	-23.1198832139	400	-400	0.998995207845	100	1	800	320	0	0	0	0	0	0	0	88	264	400	0	;
	40	850.391307475	-28.619590143	435	-435	0.998995207845	100	1	870	348	0	0	0	0	0	0	0	95.7	287.1	435	0	;
	40	850.391307475	-28.619590143	435	-435	0.998995207845	100	1	870	348	0	0	0	0	0	0	0	95.7	287.1	435	0	;
	40	850.391307475	-28.619590143	435	-435	0.998995207845	100	1	870	348	0	0	0	0	0	0	0	95.7	287.1	435	0	;
	40	850.391307475	-28.619590143	435	-435	0.998995207845	100	1	870	348	0	0	0	0	0	0	0	95.7	287.1	435	0	;
	43	117.301842301	-1.19920972312	72.394	-72.394	0.995230941172	100	1	144.788	75.28976	0	0	0	0	0	0	0	24.13133333	72.394	72.394	0	;
	43	0	0	0	0	0.995230941172	100	0	0	0	0	0	0	0	0	0	0	0	0	0	0	;
	45	0	0	255.9	-255.9	1.00138714514	100	0	511.8	266.136	0	0	0	0	0	0	0	85.3	255.9	255.9	0	;
	47	0	0	0	0	0.993146330767	100	0	0	0	0	0	0	0	0	0	0	0	0	0	0	;
	47	0	0	0	0	0.993146330767	100	0	0	0	0	0	0	0	0	0	0	0	0	0	0	;
	47	0	0	0	0	0.993146330767	100	0	0	0	0	0	0	0	0	0	0	0	0	0	0	;
	47	0	0	0	0	0.993146330767	100	0	0	0	0	0	0	0	0	0	0	0	0	0	0	;
	47	0	0	434.25	-434.25	0.993146330767	100	0	868.5	451.62	0	0	0	0	0	0	0	144.75	434.25	434.25	0	;
	47	0	0	431.65	-431.65	0.993146330767	100	0	863.3	448.916	0	0	0	0	0	0	0	143.8833333	431.65	431.65	0	;
	48	0	0	218.05	-218.05	1.00141142119	100	0	436.1	226.772	0	0	0	0	0	0	0	72.68333333	218.05	218.05	0	;
	48	0	0	189.19	-189.19	1.00141142119	100	0	378.38	196.7576	0	0	0	0	0	0	0	63.06333333	189.19	189.19	0	;
	48	350.241414907	-2.29851481784	189.19	-189.19	1.00141142119	100	1	378.38	196.7576	0	0	0	0	0	0	0	63.06333333	189.19	189.19	0	;
	49	0	0	384.915	-384.915	1.00102970931	100	0	769.83	400.3116	0	0	0	0	0	0	0	128.305	384.915	384.915	0	;
	53	0	0	250.375	-250.375	1.00408059067	100	0	500.75	260.39	0	0	0	0	0	0	0	83.45833333	250.375	250.375	0	;
	53	0	0	266.5	-266.5	1.00408059067	100	0	533	277.16	0	0	0	0	0	0	0	88.83333333	266.5	266.5	0	;
	53	0	0	191	-191	1.00408059067	100	0	382	198.64	0	0	0	0	0	0	0	63.66666667	191	191	0	;
	53	0	0	423	-423	1.00408059067	100	0	846	439.92	0	0	0	0	0	0	0	141	423	423	0	;
	53	0	0	0	0	1.00408059067	100	0	0	0	0	0	0	0	0	0	0	0	0	0	0	;
	53	0	0	0	0	1.00408059067	100	0	0	0	0	0	0	0	0	0	0	0	0	0	0	;
	53	464.646126157	-8.67772459146	250	-250	1.00408059067	100	1	500	200	0	0	0	0	0	0	0	55	165	250	0	;
	53	464.646126157	-8.67772459146	250	-250	1.00408059067	100	1	500	200	0	0	0	0	0	0	0	55	165	250	0	;
	53	464.646126157	-8.67772459146	250	-250	1.00408059067	100	1	500	200	0	0	0	0	0	0	0	55	165	250	0	;
	53	464.646126157	-8.67772459146	250	-250	1.00408059067	100	1	500	200	0	0	0	0	0	0	0	55	165	250	0	;
	53	464.646126157	-8.67772459146	250	-250	1.00408059067	100	1	500	200	0	0	0	0	0	0	0	55	165	250	0	;
	53	464.646126157	-8.67772459146	250	-250	1.00408059067	100	1	500	200	0	0	0	0	0	0	0	55	165	250	0	;
	53	990.879383195	-57.5092747017	510	-510	1.00408059067	100	1	1020	408	0	0	0	0	0	0	0	112.2	336.6	510	0	;
	53	990.879383195	-57.5092747017	510	-510	1.00408059067	100	1	1020	408	0	0	0	0	0	0	0	112.2	336.6	510	0	;
	57	0	0	50.85	-50.85	0.997687489448	100	0	101.7	52.884	0	0	0	0	0	0	0	16.95	50.85	50.85	0	;
	58	0	0	0	0	1.00271717686	100	0	0	0	0	0	0	0	0	0	0	0	0	0	0	;
	59	0	0	173.165	-173.165	1.00380519027	100	0	346.33	180.0916	0	0	0	0	0	0	0	57.72166667	173.165	173.165	0	;
	59	0	0	0	0	1.00380519027	100	0	0	0	0	0	0	0	0	0	0	0	0	0	0	;
	59	0	0	0	0	1.00380519027	100	0	0	0	0	0	0	0	0	0	0	0	0	0	0	;
	59	0	0	0	0	1.00380519027	100	0	0	0	0	0	0	0	0	0	0	0	0	0	0	;
	59	0	0	0	0	1.00380519027	100	0	0	0	0	0	0	0	0	0	0	0	0	0	0	;
	59	460.107188689	-8.10865304279	250	-250	1.00380519027	100	1	500	200	0	0	0	0	0	0	0	55	165	250	0	;
	59	460.107188689	-8.10865304279	250	-250	1.00380519027	100	1	500	200	0	0	0	0	0	0	0	55	165	250	0	;
	59	460.107188689	-8.10865304279	250	-250	1.00380519027	100	1	500	200	0	0	0	0	0	0	0	55	165	250	0	;
	59	460.107188689	-8.10865304279	250	-250	1.00380519027	100	1	500	200	0	0	0	0	0	0	0	55	165	250	0	;
	59	1016.35913899	-58.4459806963	525	-525	1.00380519027	100	1	1050	420	0	0	0	0	0	0	0	115.5	346.5	525	0	;
	59	1016.35913899	-58.4459806963	525	-525	1.00380519027	100	1	1050	420	0	0	0	0	0	0	0	115.5	346.5	525	0	;
	62	0	0	0	0	1.00265437302	100	0	0	0	0	0	0	0	0	0	0	0	0	0	0	;
	64	0	0	265.2205	-265.2205	1.00066891224	100	0	530.441	275.82932	0	0	0	0	0	0	0	88.40683333	265.2205	265.2205	0	;
	70	0	0	215.6	-215.6	0.996294321643	100	0	431.2	224.224	0	0	0	0	0	0	0	71.86666667	215.6	215.6	0	;
	71	997.136227551	-116.847763356	520	-520	0.992536792587	100	1	1040	416	0	0	0	0	0	0	0	114.4	343.2	520	0	;
	73	0	0	0	0	0.993971818049	100	0	0	0	0	0	0	0	0	0	0	0	0	0	0	;
	73	0	0	0	0	0.993971818049	100	0	0	0	0	0	0	0	0	0	0	0	0	0	0	;
	73	549.32015421	-15.0426097767	297.5	-297.5	0.993971818049	100	1	595	238	0	0	0	0	0	0	0	65.45	196.35	297.5	0	;
	73	549.32015421	-15.0426097767	297.5	-297.5	0.993971818049	100	1	595	238	0	0	0	0	0	0	0	65.45	196.35	297.5	0	;
	79	0	0	424	-424	0.987316955639	100	0	848	440.96	0	0	0	0	0	0	0	141.3333333	424	424	0	;
	75	885.609210817	-78.6042219586	511	-511	0.996654174383	100	1	1022	408.8	0	0	0	0	0	0	0	112.42	337.26	511	0	;
	75	885.609210817	-78.6042219586	511	-511	0.996654174383	100	1	1022	408.8	0	0	0	0	0	0	0	112.42	337.26	511	0	;
	82	930.845110778	-52.3571581305	475	-475	1.01075475664	100	1	950	902.5	0	0	0	0	0	0	0	28.5	85.5	475	0	;
	82	930.845110778	-52.3571581305	475	-475	1.01075475664	100	1	950	902.5	0	0	0	0	0	0	0	28.5	85.5	475	0	;
	82	980.014349921	-57.2336675102	500	-500	1.01075475664	100	1	1000	950	0	0	0	0	0	0	0	30	90	500	0	;
	82	980.014349921	-57.2336675102	500	-500	1.01075475664	100	1	1000	950	0	0	0	0	0	0	0	30	90	500	0	;
	82	980.014349921	-57.2336675102	500	-500	1.01075475664	100	1	1000	950	0	0	0	0	0	0	0	30	90	500	0	;
	82	980.014349921	-57.2336675102	500	-500	1.01075475664	100	1	1000	950	0	0	0	0	0	0	0	30	90	500	0	;
	82	1373.81623297	-93.0875622552	700	-700	1.01075475664	100	1	1400	1330	0	0	0	0	0	0	0	42	126	700	0	;
	87	0	0	180.8	-180.8	0.996614507173	100	0	361.6	188.032	0	0	0	0	0	0	0	60.26666667	180.8	180.8	0	;
	98	0	0	44	-44	0.996934279413	100	0	88	45.76	0	0	0	0	0	0	0	14.66666667	44	44	0	;
	99	0	0	24.15	-24.15	0.995281738886	100	0	48.3	25.116	0	0	0	0	0	0	0	8.05	24.15	24.15	0	;
	100	0	0	225	-225	1.00611990116	100	0	450	234	0	0	0	0	0	0	0	75	225	225	0	;
	100	0	0	225	-225	1.00611990116	100	0	450	234	0	0	0	0	0	0	0	75	225	225	0	;
	100	0	0	225	-225	1.00611990116	100	0	450	234	0	0	0	0	0	0	0	75	225	225	0	;
	100	511.179896598	-2.19796114426	275	-275	1.00611990116	100	1	550	220	0	0	0	0	0	0	0	60.5	181.5	275	0	;
	100	460.172238632	-0.703691068089	250	-250	1.00611990116	100	1	500	200	0	0	0	0	0	0	0	55	165	250	0	;
	100	0	0	0	0	1.00611990116	100	0	0	0	0	0	0	0	0	0	0	0	0	0	0	;
	100	0	0	0	0	1.00611990116	100	0	0	0	0	0	0	0	0	0	0	0	0	0	0	;
	100	460.172238632	-0.703691068089	250	-250	1.00611990116	100	1	500	200	0	0	0	0	0	0	0	55	165	250	0	;
	100	460.172238632	-0.703691068089	250	-250	1.00611990116	100	1	500	200	0	0	0	0	0	0	0	55	165	250	0	;
	100	985.264962525	-15.4544656337	509.515	-509.515	1.00611990116	100	1	1019.03	407.612	0	0	0	0	0	0	0	112.0933	336.2799	509.515	0	;
	100	985.264962525	-15.4544656337	509.515	-509.515	1.00611990116	100	1	1019.03	407.612	0	0	0	0	0	0	0	112.0933	336.2799	509.515	0	;
	106	947.253938979	25.414356847	509	-509	1.000646301	100	1	1018	407.2	0	0	0	0	0	0	0	111.98	335.94	509	0	;
	108	0	0	359.2	-359.2	0.998914144046	100	0	718.4	373.568	0	0	0	0	0	0	0	119.7333333	359.2	359.2	0	;
	124	931.50726794	30.6304843517	475	-475	1.01216678139	100	1	950	902.5	0	0	0	0	0	0	0	28.5	85.5	475	0	;
	124	931.50726794	30.6304843517	475	-475	1.01216678139	100	1	950	902.5	0	0	0	0	0	0	0	28.5	85.5	475	0	;
	124	980.735227812	34.4426560744	500	-500	1.01216678139	100	1	1000	950	0	0	0	0	0	0	0	30	90	500	0	;
	124	980.735227812	34.4426560744	500	-500	1.01216678139	100	1	1000	950	0	0	0	0	0	0	0	30	90	500	0	;
	124	980.735227812	34.4426560744	500	-500	1.01216678139	100	1	1000	950	0	0	0	0	0	0	0	30	90	500	0	;
	124	980.735227812	34.4426560744	500	-500	1.01216678139	100	1	1000	950	0	0	0	0	0	0	0	30	90	500	0	;
	128	0	0	57.623	-57.623	0.991253351609	100	0	115.246	59.92792	0	0	0	0	0	0	0	19.20766667	57.623	57.623	0	;
	134	0	0	262.75	-262.75	0.998295033874	100	0	525.5	273.26	0	0	0	0	0	0	0	87.58333333	262.75	262.75	0	;
	134	0	0	432.1	-432.1	0.998295033874	100	0	864.2	449.384	0	0	0	0	0	0	0	144.0333333	432.1	432.1	0	;
	134	0	0	247.3	-247.3	0.998295033874	100	0	494.6	257.192	0	0	0	0	0	0	0	82.43333333	247.3	247.3	0	;
	134	0	0	247.3	-247.3	0.998295033874	100	0	494.6	257.192	0	0	0	0	0	0	0	82.43333333	247.3	247.3	0	;
	137	301.7361328	9.46191265767	170	-170	0.995447649206	100	1	340	136	0	0	0	0	0	0	0	37.4	112.2	170	0	;
	137	291.091328371	8.76379914653	164.3	-164.3	0.995447649206	100	1	328.6	131.44	0	0	0	0	0	0	0	36.146	108.438	164.3	0	;
	156	0	0	185.35	-185.35	0.994104412947	100	0	370.7	192.764	0	0	0	0	0	0	0	61.78333333	185.35	185.35	0	;
	160	0	0	0	0	0.995226813265	100	0	0	0	0	0	0	0	0	0	0	0	0	0	0	;
	166	685.595703445	63.3215157183	350	-350	1.0086436037	100	1	700	665	0	0	0	0	0	0	0	21	63	350	0	;
	166	685.595703445	63.3215157183	350	-350	1.0086436037	100	1	700	665	0	0	0	0	0	0	0	21	63	350	0	;
	166	685.595703445	63.3215157183	350	-350	1.0086436037	100	1	700	665	0	0	0	0	0	0	0	21	63	350	0	;
	166	980.695207021	119.590163352	500	-500	1.0086436037	100	1	1000	950	0	0	0	0	0	0	0	30	90	500	0	;
	166	980.695207021	119.590163352	500	-500	1.0086436037	100	1	1000	950	0	0	0	0	0	0	0	30	90	500	0	;
	167	0	0	150	-150	1.00791201844	100	0	300	156	0	0	0	0	0	0	0	50	150	150	0	;
	167	0	0	225	-225	1.00791201844	100	0	450	234	0	0	0	0	0	0	0	75	225	225	0	;
	167	0	0	225	-225	1.00791201844	100	0	450	234	0	0	0	0	0	0	0	75	225	225	0	;
	167	0	0	435.95	-435.95	1.00791201844	100	0	871.9	453.388	0	0	0	0	0	0	0	145.3166667	435.95	435.95	0	;
	167	0	0	221.4	-221.4	1.00791201844	100	0	442.8	230.256	0	0	0	0	0	0	0	73.8	221.4	221.4	0	;
	172	0	0	22.918	-22.918	1.00003189081	100	0	45.836	23.83472	0	0	0	0	0	0	0	7.639333333	22.918	22.918	0	;
	175	636.155742799	25.3988796512	325	-325	1.01440044506	100	1	650	617.5	0	0	0	0	0	0	0	19.5	58.5	325	0	;
	175	930.839622594	57.97360561	475	-475	1.01440044506	100	1	950	902.5	0	0	0	0	0	0	0	28.5	85.5	475	0	;
	175	930.839622594	57.97360561	475	-475	1.01440044506	100	1	950	902.5	0	0	0	0	0	0	0	28.5	85.5	475	0	;
	175	980.007040089	63.9340409116	500	-500	1.01440044506	100	1	1000	950	0	0	0	0	0	0	0	30	90	500	0	;
	175	980.007040089	63.9340409116	500	-500	1.01440044506	100	1	1000	950	0	0	0	0	0	0	0	30	90	500	0	;
	175	1373.78488691	117.855398325	700	-700	1.01440044506	100	1	1400	1330	0	0	0	0	0	0	0	42	126	700	0	;
	175	1373.78488691	117.855398325	700	-700	1.01440044506	100	1	1400	1330	0	0	0	0	0	0	0	42	126	700	0	;
	180	0	0	13.15	-13.15	0.996927613965	100	0	26.3	13.676	0	0	0	0	0	0	0	4.383333333	13.15	13.15	0	;
	186	0	0	225	-225	1.00586863833	100	0	450	234	0	0	0	0	0	0	0	75	225	225	0	;
	186	401.398940799	19.0797483068	225	-225	1.00586863833	100	1	450	234	0	0	0	0	0	0	0	75	225	225	0	;
	186	0	0	225	-225	1.00586863833	100	0	450	234	0	0	0	0	0	0	0	75	225	225	0	;
	186	0	0	225	-225	1.00586863833	100	0	450	234	0	0	0	0	0	0	0	75	225	225	0	;
	190	0	0	0	0	1	100	0	0	0	0	0	0	0	0	0	0	0	0	0	0	;
	190	0	0	0	0	1	100	0	0	0	0	0	0	0	0	0	0	0	0	0	0	;
	190	0	0	0	0	1	100	0	0	0	0	0	0	0	0	0	0	0	0	0	0	;
	190	0	0	0	0	1	100	0	0	0	0	0	0	0	0	0	0	0	0	0	0	;
	190	949.820934567	-16.2916175029	520	-520	1	100	1	1040	416	0	0	0	0	0	0	0	114.4	343.2	520	0	;
	190	949.820934567	-16.2916175029	520	-520	1	100	1	1040	416	0	0	0	0	0	0	0	114.4	343.2	520	0	;
	193	0	0	0	0	1.0037266844	100	0	0	0	0	0	0	0	0	0	0	0	0	0	0	;
	193	0	0	0	0	1.0037266844	100	0	0	0	0	0	0	0	0	0	0	0	0	0	0	;
	193	0	0	0	0	1.0037266844	100	0	0	0	0	0	0	0	0	0	0	0	0	0	0	;
	193	0	0	0	0	1.0037266844	100	0	0	0	0	0	0	0	0	0	0	0	0	0	0	;
	193	461.012013226	14.5515869564	250	-250	1.0037266844	100	1	500	200	0	0	0	0	0	0	0	55	165	250	0	;
	193	461.012013226	14.5515869564	250	-250	1.0037266844	100	1	500	200	0	0	0	0	0	0	0	55	165	250	0	;
	193	461.012013226	14.5515869564	250	-250	1.0037266844	100	1	500	200	0	0	0	0	0	0	0	55	165	250	0	;
	193	461.012013226	14.5515869564	250	-250	1.0037266844	100	1	500	200	0	0	0	0	0	0	0	55	165	250	0	;
	71	997.136227551	-116.847763356	520	-520	0.992536792587	100	1	1040	416	0	0	0	0	0	0	0	114.4	343.2	520	0	;
	60	0	0	247.5	-247.5	1.00101344754	100	0	495	257.4	0	0	0	0	0	0	0	82.5	247.5	247.5	0	;
	42	997.209560038	-31.2532684212	512.7	-512.7	0.990399775521	100	1	1025.4	533.208	0	0	0	0	0	0	0	170.9	512.7	512.7	0	;
	11	0	0	0	0	1.00014905148	100	0	0	0	0	0	0	0	0	0	0	0	0	0	0	;
	172	0	0	59.486	-59.486	1.00003189081	100	0	118.972	61.86544	0	0	0	0	0	0	0	19.8286666667	59.486	59.486	0	;
	82	1373.81623297	-93.0875622552	700	-700	1.01075475664	100	1	1400	1330	0	0	0	0	0	0	0	42	126	700	0	;
	75	910.444980613	-82.2701113812	525	-525	0.996654174383	100	1	1050	420	0	0	0	0	0	0	0	115.5	346.5	525	0	;
	64	0	0	298.5855	-298.5855	1.00066891224	100	0	597.171	310.52892	0	0	0	0	0	0	0	99.5285	298.5855	298.5855	0	;
	160	0	0	135	-135	0.995226813265	100	0	270	140.4	0	0	0	0	0	0	0	45	135	135	0	;
	192	0	0	506	-506	0.992650544082	100	0	1012	526.24	0	0	0	0	0	0	0	168.666666667	506	506	0	;
	167	1090.07059754	139.049112299	552.3	-552.3	1.00791201844	100	1	1104.6	574.392	0	0	0	0	0	0	0	184.1	552.3	552.3	0	;
	75	0	0	525	-525	0.996654174383	100	0	1050	546	0	0	0	0	0	0	0	175	525	525	0	;
	62	0	0	135	-135	1.00265437302	100	0	270	140.4	0	0	0	0	0	0	0	45	135	135	0	;
	52	530.688948186	2.98479277945	280.5	-280.5	0.99504214821	100	1	561	291.72	0	0	0	0	0	0	0	93.5	280.5	280.5	0	;
	11	0	0	247.73	-247.73	1.00014905148	100	0	495.46	257.6392	0	0	0	0	0	0	0	82.5766666667	247.73	247.73	0	;
	24	0	0	142.5	-142.5	1.00226737498	100	0	285	148.2	0	0	0	0	0	0	0	47.5	142.5	142.5	0	;
	26	473.374161337	-25.401256454	249	-249	1.00293635766	100	1	498	258.96	0	0	0	0	0	0	0	83	249	249	0	;
...
];

% branch data
%	fbus	tbus	r	x	b	rateA	rateB	rateC	ratio	angle	status	angmin	angmax	Pf	Qf	Pt	Qt
mpc.branch = [
	1	2	0.001953667	0.017794207	0.057753945	904	904	904	0	0	1	-30	30	167.134605216	-36.8548510162	-166.565343522	36.2555185091	;
	1	3	0.002346024	0.021367842	0.069352749	904	904	904	0	0	1	-30	30	133.215077847	-33.3483182845	-132.777039314	30.3890474917	;
	1	66	0.002789894	0.025410654	0.082474341	904	904	904	0	0	1	-30	30	-366.430340682	63.595105018	370.310941229	-36.4633428634	;
	2	3	0.000230027	0.002463512	0.207508013	2172	2172	2172	0	0	1	-30	30	-52.2040473392	-23.6020396291	52.2106838893	2.81395539386	;
	2	4	0.001097043	0.009991982	0.032430577	904	904	904	0	0	1	-30	30	72.3640727226	-12.9524206109	-72.3054986265	10.2261899418	;
	2	6	0.004587512	0.041783555	0.135615211	904	904	904	0	0	1	-30	30	66.5383215435	-7.6877571009	-66.3361469652	-4.06595004345	;
	3	4	0.000157872	0.001690763	0.142417379	2172	2172	2172	0	0	1	-30	30	505.73080605	-47.4056622414	-505.326759862	37.4115809989	;
	3	7	0.001539844	0.014025061	0.04552058	904	904	904	0	0	1	-30	30	72.5978466138	-16.6004668094	-72.5140111706	12.7818973453	;
	3	28	0.000668777	0.007162388	0.603306441	2172	2172	2172	0	0	1	-30	30	-864.063383518	-5.82696781482	869.032365449	-1.98809076184	;
	4	7	0.001330617	0.012119404	0.039335464	904	904	904	0	0	1	-30	30	13.5903676328	-11.9063975735	-13.586618911	7.98130929256	;
	4	8	0.000413018	0.004423289	0.372585094	2172	2172	2172	0	0	1	-30	30	408.920669347	15.3780540453	-408.229038954	-45.3215617832	;
	5	16	0.00309813	0.028218105	0.091586372	904	904	904	0	0	1	-30	30	617.924501572	-14.1726268283	-606.245390658	111.279955844	;
	5	20	0.003233724	0.029453105	0.095594761	904	904	904	0	0	1	-30	30	571.979299544	-9.93807159186	-561.536089899	95.39792632	;
	5	66	0.002753227	0.025076687	0.081390398	904	904	904	0	0	1	-30	30	134.911754752	22.7558526056	-134.397494557	-26.2375454904	;
	5	70	0.001710666	0.015580931	0.050570403	904	904	904	0	0	1	-30	30	204.793698634	44.2536896219	-204.048527236	-42.538115955	;
	6	8	0.001796592	0.016363559	0.053110546	904	904	904	0	0	1	-30	30	-15.1840036705	1.29418938488	15.1884253257	-6.56396566164	;
	6	11	0.001545809	0.014079394	0.045696926	904	904	904	0	0	1	-30	30	-0.0534115718932	-2.6954681988	0.053414216661	-1.87529495003	;
	7	9	0.000740338	0.006743076	0.021885732	904	904	904	0	0	1	-30	30	110.544431103	-18.1309930528	-110.452508953	16.7623385198	;
	7	14	0.000255269	0.002733843	0.230278712	2172	2172	2172	0	0	1	-30	30	297.249933075	-39.0410169951	-297.024167179	18.2564882064	;
	7	28	0.000583767	0.00625196	0.526618746	2172	2172	2172	0	0	1	-30	30	-1153.94447641	43.0341739931	1161.6876011	-13.4308832874	;
	8	10	0.000160584	0.000184873	0.901984702	1416	1416	1416	0	0	1	-30	30	-641.383986609	111.192634152	642.084191736	-200.601479131	;
	8	11	0.000158062	0.001692798	0.142588761	2172	2172	2172	0	0	1	-30	30	147.277918858	-46.0125925057	-147.241223206	32.1485800842	;
	8	14	0.000269282	0.002883925	0.242920462	2172	2172	2172	0	0	1	-30	30	-288.976958032	-125.288866301	289.236450138	103.690337719	;
	9	12	0.000119405	0.000137466	0.167672111	708	708	708	0	0	1	-30	30	181.274408277	-47.5526416181	-181.233682708	30.6963570298	;
	9	13	0.000176983	0.000203752	0.248523638	708	708	708	0	0	1	-30	30	-31.5406511148	-43.3707552545	31.5440670013	18.3138140005	;
	9	15	0.000297907	0.000342968	0.41832935	708	708	708	0	0	1	-30	30	-356.440657641	49.5077776041	356.830769193	-91.2719535883	;
	10	14	0.00105221	0.00958364	0.031105236	904	904	904	0	0	1	-30	30	-71.7205819585	-28.2430225523	71.782142439	25.679933361	;
	10	24	0.000243464	0.000280289	1.367512381	1416	1416	1416	0	0	1	-30	30	-996.006185714	154.450043806	998.540024923	-288.657865919	;
	11	21	0.00015784	0.00169041	0.142387631	2172	2172	2172	0	0	1	-30	30	-303.745465423	-59.9508149434	303.895451171	47.2943634839	;
	11	25	0.00110679	0.010080759	0.032718716	904	904	904	0	0	1	-30	30	-68.6369711126	-15.5851066294	68.6912496162	12.7994651535	;
	12	14	0.000665432	0.00606083	0.019671394	904	904	904	0	0	1	-30	30	5.57369314526	1.21981500337	-5.57345577228	-3.20008678658	;
	12	18	0.000258897	0.000298056	0.363549377	708	708	708	0	0	1	-30	30	-142.155575778	-63.697729017	142.212770354	27.1014578807	;
	13	16	0.000661549	0.006025463	0.019556605	904	904	904	0	0	1	-30	30	-35.1475652387	-14.4228364209	35.1568530573	12.5330873391	;
	13	17	0.000189196	0.000217813	0.265674267	708	708	708	0	0	1	-30	30	-268.558650445	-16.4723021436	268.693972188	-10.1790714865	;
	13	22	0.000821755	0.00748463	0.024292563	904	904	904	0	0	1	-30	30	-30.0261918069	-10.6082708412	30.0342554374	8.22947708066	;
	14	18	9.94e-05	0.000114489	0.558582953	1416	1416	1416	0	0	1	-30	30	-604.948054084	-91.6878170466	605.3130589	35.7875172557	;
	14	19	2.7e-05	6.2e-05	1.344867636	1906	1906	1906	0	0	1	-30	30	-25.7506654667	-94.4000714237	25.7510333987	-41.1116288822	;
	14	23	0.000322118	0.000370841	0.45232683	708	708	708	0	0	1	-30	30	204.918779486	4.92532174173	-204.782082063	-50.3100930293	;
	15	16	0.000110729	0.000127478	0.155489196	708	708	708	0	0	1	-30	30	-403.606751983	74.3952239251	403.79277394	-89.8894495548	;
	16	17	1.61e-05	3.7e-05	7.216516162	5718	5718	5718	0	0	1	-30	30	3820.37989165	-592.433269884	-3818.04642463	-131.121622554	;
	16	20	0.000640865	0.005837068	0.018945138	904	904	904	0	0	1	-30	30	-95.9395073742	36.5148985199	96.0067809178	-37.8138110331	;
	16	22	3.29e-05	7.57e-05	1.640782241	1906	1906	1906	0	0	1	-30	30	-112.53949346	88.7303748101	112.553207267	-254.500713512	;
	16	28	0.000193401	0.002071259	0.697869898	4344	4344	4344	0	0	1	-30	30	-3745.97819135	292.648515762	3773.03807611	-73.615819833	;
	17	18	8.5e-06	1.95e-05	1.693948976	3812	3812	3812	0	0	1	-30	30	3044.52845805	90.818295491	-3043.74540672	-259.98298171	;
	18	19	3.3e-05	3.8e-05	0.742	2832	2832	2832	0	0	1	-30	30	1779.80448343	131.216673263	-1778.75911419	-204.828913757	;
	18	30	0.000754369	0.006870878	0.022300533	904	904	904	0	0	1	-30	30	-10.6421279543	13.1716252433	10.6445029343	-15.3980025059	;
	19	23	4.24e-05	4.88e-05	0.952412124	2832	2832	2832	0	0	1	-30	30	1591.1556323	180.910252341	-1590.06826383	-275.553799694	;
	20	22	0.000644357	0.005868869	0.019048354	904	904	904	0	0	1	-30	30	93.26614947	-35.8089035122	-93.2027488569	34.46447748	;
	21	25	0.000588113	0.0053566	0.017385701	904	904	904	0	0	1	-30	30	-33.2050788685	-12.2186031064	33.2122982766	10.5390507089	;
	21	34	9.49e-05	0.001016882	0.085654572	2172	2172	2172	0	0	1	-30	30	-567.00321785	-107.594225201	567.317475813	102.356082485	;
	22	29	0.000157753	0.000181614	0.886083495	1416	1416	1416	0	0	1	-30	30	830.822972505	102.191365137	-829.711559405	-190.3032059	;
	22	36	0.000114952	0.001231098	0.103698609	2172	2172	2172	0	0	1	-30	30	85.7758040785	114.859143126	-85.7510243591	-125.055257753	;
	22	38	0.000222736	0.002385427	0.200930653	2172	2172	2172	0	0	1	-30	30	-588.087684702	192.010546145	588.940165242	-203.114677985	;
	22	46	0.000425686	0.004558955	0.384012537	2172	2172	2172	0	0	1	-30	30	-181.966546183	69.4716398605	182.139321411	-106.298164418	;
	23	24	5.52e-05	0.000503	0.0147	2712	2712	2712	0	0	1	-30	30	524.868887648	95.3960330887	-524.712666729	-95.4503033218	;
	23	32	2.02e-05	4.64e-05	1.00675716	1906	1906	1906	0	0	1	-30	30	628.339159239	176.127171457	-628.249564394	-277.185749765	;
	23	33	0.000169968	0.000195677	0.238673524	708	708	708	0	0	1	-30	30	256.723844048	7.00036060321	-256.6118896	-30.8726226505	;
	24	26	0.000118	0.000136	0.664	1416	1416	1416	0	0	1	-30	30	-1001.36125971	343.656947992	1002.70608814	-408.852961026	;
	25	26	0.00041452	0.003775492	0.012253963	904	904	904	0	0	1	-30	30	-63.9638921402	-9.42106720256	63.9810926311	8.34586378156	;
	25	34	0.000619848	0.00564564	0.018323828	904	904	904	0	0	1	-30	30	-70.788917156	-7.19127988286	70.8200760917	5.63265246758	;
	26	32	0.000607908	0.005536893	0.01797087	904	904	904	0	0	1	-30	30	-9.28175056855	2.5226847151	9.28234218167	-4.32471323637	;
	26	34	4.5e-05	0.000103577	2.245327702	1906	1906	1906	0	0	1	-30	30	-1353.17455409	282.776609942	1354.0637724	-506.628190358	;
	27	34	9.33e-05	0.000999417	0.336734	4344	4344	4344	0	0	1	-30	30	334.393614281	-7.59965465205	-334.289939599	-25.1881984203	;
	28	38	0.001685665	0.015353221	0.049831335	904	904	904	0	0	1	-30	30	413.833281832	10.5537405784	-410.9934221	10.276143293	;
	28	41	0.002015591	0.018358223	0.059584548	904	904	904	0	0	1	-30	30	-80.4829050282	92.5600531891	80.7922135681	-95.7125752952	;
	28	50	9.99e-05	0.00321	1.63	7290	7290	7290	0	0	1	-30	30	1468.48973249	54.648406706	-1466.35401796	-151.10613231	;
	28	80	0.000122152	0.003924627	7.991861101	14580	14580	14580	0	0	1	-30	30	-6294.98915122	638.334957508	6343.86969946	120.907987432	;
	29	30	8.04e-06	9.26e-06	0.04515506	1416	1416	1416	0	0	1	-30	30	613.457398328	64.0145119156	-613.427008772	-68.5275548829	;
	29	36	3.7e-05	8.52e-05	1.846241882	1906	1906	1906	0	0	1	-30	30	-354.066395037	60.8234438483	354.12113468	-246.662193146	;
	30	31	0.00033011	0.003006676	0.009758648	904	904	904	0	0	1	-30	30	113.857686481	35.0330757587	-113.811059873	-35.5898355616	;
	31	33	0.000235829	0.000271499	0.331156608	708	708	708	0	0	1	-30	30	-225.14024753	21.1851106002	225.262633667	-54.3156489129	;
	31	36	0.00107165	0.0097607	0.031679912	904	904	904	0	0	1	-30	30	-39.2649054565	-12.4939817452	39.2826256543	9.46911392389	;
	32	33	6.05e-05	6.97e-05	0.1912274	1062	1062	1062	0	0	1	-30	30	354.905252572	28.4989411481	-354.82859968	-47.6361340083	;
	32	37	0.000239942	0.002569698	0.216452349	2172	2172	2172	0	0	1	-30	30	-95.4554398296	53.7435493422	95.4871462061	-75.1398647928	;
	32	44	0.000338016	0.003620039	0.304925228	2172	2172	2172	0	0	1	-30	30	-140.312952404	105.134932474	140.427908309	-134.449703786	;
	34	37	6.47e-05	0.000692975	0.058371101	2172	2172	2172	0	0	1	-30	30	-200.439524923	270.262599705	200.513345815	-275.33543569	;
	35	37	0.000950447	0.008656772	0.028096937	904	904	904	0	0	1	-30	30	-34.7978607907	-20.1272218527	34.8127189784	17.4506021145	;
	35	40	0.001104834	0.01006295	0.032660912	904	904	904	0	0	1	-30	30	-196.903314072	26.2464914873	197.340759777	-25.523113277	;
	36	38	0.000952048	0.00867136	0.028144286	904	904	904	0	0	1	-30	30	-172.713367903	39.9911957726	173.011522469	-40.1052930204	;
	36	43	0.001604892	0.014617531	0.047443535	904	904	904	0	0	1	-30	30	122.433594624	42.8046419876	-122.162212202	-45.0718678329	;
	36	44	0.000327256	0.003504805	0.295218756	2172	2172	2172	0	0	1	-30	30	-64.2316213242	125.286482053	64.3088460954	-154.057294681	;
	36	46	0.000315296	0.00337672	0.284429868	2172	2172	2172	0	0	1	-30	30	-276.446468088	62.009568211	276.703928222	-87.8545850702	;
	37	40	0.000119	0.00127	0.429	4344	4344	4344	0	0	1	-30	30	-1334.05216846	303.293683828	1336.28937131	-322.333782019	;
	38	42	0.001675214	0.015258027	0.049522368	904	904	904	0	0	1	-30	30	-159.902179286	92.1640155804	160.47850424	-91.8286401952	;
	38	45	0.001624604	0.014797065	0.048026242	904	904	904	0	0	1	-30	30	30.4793842946	-2.88017479738	-30.4643425015	-1.80077497306	;
	38	46	0.001525585	0.013895192	0.045099066	904	904	904	0	0	1	-30	30	41.0388192425	-7.85916569768	-41.0127418779	3.56974923736	;
	38	84	0.000977268	0.010466224	0.881597169	2172	2172	2172	0	0	1	-30	30	-631.531479718	114.623499495	635.660878589	-158.160759706	;
	39	44	0.000549539	0.00500526	0.064981493	1808	1808	1808	0	0	1	-30	30	-605.87266478	-54.6428715165	607.935140553	66.9851638346	;
	40	44	0.000186834	0.002000932	0.16854368	2172	2172	2172	0	0	1	-30	30	714.820577313	-67.3357616332	-713.857492799	60.8304548175	;
	40	47	0.000177428	0.001900194	0.160058219	2172	2172	2172	0	0	1	-30	30	1245.40268699	197.62080712	-1242.57003289	-183.164462449	;
	41	42	0.001299581	0.011836722	0.038417974	904	904	904	0	0	1	-30	30	440.127115689	-15.8963162189	-437.571936829	35.3905181301	;
	41	52	0.003101751	0.028251087	0.091693421	904	904	904	0	0	1	-30	30	71.3591689195	-18.4573192464	-71.1929103015	10.9107634194	;
	41	77	0.002217352	0.020195883	0.065548969	904	904	904	0	0	1	-30	30	-128.697824882	19.864763382	129.0822103	-22.8188409442	;
	42	46	0.00172419	0.015704108	0.050970195	904	904	904	0	0	1	-30	30	191.934317239	-93.3135441018	-191.141806869	95.4734424327	;
	42	84	0.004178797	0.038060939	0.123532864	904	904	904	0	0	1	-30	30	-107.489409287	-0.48702928399	107.982954376	-7.17493141599	;
	43	44	0.000449352	0.004092749	0.013283673	904	904	904	0	0	1	-30	30	-486.761680385	-32.6683414715	487.841238007	41.1804310739	;
	44	48	0.001280818	0.011665829	0.037863315	904	904	904	0	0	1	-30	30	-111.514337907	-10.0712248206	111.674809945	7.74514302632	;
	44	57	0.000681396	0.007297531	0.614689901	2172	2172	2172	0	0	1	-30	30	-738.905385078	76.0551122311	742.711334185	-96.5566816508	;
	45	46	0.000111099	0.001189836	0.100222927	2172	2172	2172	0	0	1	-30	30	101.029810298	-63.4207393437	-101.014723744	53.5263465463	;
	45	50	0.00040114	0.004296079	0.361869864	2172	2172	2172	0	0	1	-30	30	-487.065979458	-28.2987294732	488.015394882	2.0847483296	;
	46	48	0.001260894	0.011484355	0.037274311	904	904	904	0	0	1	-30	30	-51.9478361446	8.86477785877	51.9831762773	-12.2829411821	;
	46	50	0.000334595	0.003583402	0.301839233	2172	2172	2172	0	0	1	-30	30	-617.830658327	-7.15199558991	619.103053388	-9.58519925038	;
	47	49	0.001906713	0.017366547	0.056365905	904	904	904	0	0	1	-30	30	-157.710085204	-28.4515361612	158.203639947	27.3429872326	;
	47	60	0.000752607	0.008060181	0.67892992	2172	2172	2172	0	0	1	-30	30	-1157.74501853	32.7247322541	1168.00592124	9.66815277641	;
	48	49	0.001480551	0.013485018	0.043767781	904	904	904	0	0	1	-30	30	-37.2666269259	4.82896768746	37.2878592196	-9.02305073538	;
	48	51	0.001270961	0.011576049	0.037571917	904	904	904	0	0	1	-30	30	-66.1692925402	-9.05115156685	66.2254342771	5.78830180898	;
	49	51	0.000899122	0.008189302	0.0598043	1356	1356	1356	0	0	1	-30	30	-32.0448728892	-24.8490812786	32.058371598	18.9668204034	;
	49	53	0.002230934	0.020319589	0.065950477	904	904	904	0	0	1	-30	30	-454.030620994	52.9695000291	458.690599375	-17.154719954	;
	50	51	0.000183433	0.001964511	0.165475847	2172	2172	2172	0	0	1	-30	30	432.311331207	-1.79575999839	-431.97114949	-11.2262620904	;
	50	54	0.000298513	0.003196975	0.269289514	2172	2172	2172	0	0	1	-30	30	-290.622514707	106.745323171	290.91551361	-130.672846759	;
	50	62	4.12e-05	0.001322961	2.693994224	14580	14580	14580	0	0	1	-30	30	-1307.60339074	17.6648730698	1308.31187385	-266.107635072	;
	51	55	0.001436718	0.01308578	0.042471992	904	904	904	0	0	1	-30	30	-282.255255617	70.3568814249	283.46781541	-63.5664396208	;
	51	57	0.00189377	0.017248658	0.055983277	904	904	904	0	0	1	-30	30	-193.535567818	53.3946656123	194.299976893	-52.0351709923	;
	52	54	0.001933006	0.017606027	0.057143176	904	904	904	0	0	1	-30	30	179.161632993	-53.5480538741	-178.484738987	54.0211052857	;
	52	56	0.001462649	0.013321963	0.04323856	904	904	904	0	0	1	-30	30	193.100629319	-27.2647090533	-192.540465675	28.0819040166	;
	52	84	0.001585688	0.014442614	0.046875812	904	904	904	0	0	1	-30	30	-63.0796084707	14.4165630987	63.1478203084	-18.4300685791	;
	53	55	0.000288514	0.003089893	1.041078801	4344	4344	4344	0	0	1	-30	30	1719.50213329	16.4280858474	-1711.02728215	-30.0335010969	;
	53	58	0.000270064	0.002892303	0.243626177	2172	2172	2172	0	0	1	-30	30	-666.581450129	103.884013933	667.807841744	-115.278255992	;
	53	63	2.79e-05	0.000896312	1.825192122	14580	14580	14580	0	0	1	-30	30	1384.97573214	-70.1055520386	-1384.44477439	-96.7563990821	;
	54	55	0.002132132	0.019419691	0.063029714	904	904	904	0	0	1	-30	30	-99.6252629295	22.4992754711	99.8504352064	-26.748096643	;
	54	61	0.001817125	0.016550571	0.053717525	904	904	904	0	0	1	-30	30	-7.14791034745	-0.339841036318	7.14893706993	-5.03266796029	;
	54	62	0.000345552	0.003700749	0.311723639	2172	2172	2172	0	0	1	-30	30	-209.492143984	-38.1356023978	209.645220479	8.48642638192	;
	55	57	0.000154208	0.001651521	0.139111914	2172	2172	2172	0	0	1	-30	30	213.483405197	17.298727281	-213.4119925	-30.3909034845	;
	55	64	0.003142511	0.028622331	0.092898352	904	904	904	0	0	1	-30	30	-19.4436996982	-10.3175048288	19.4566377227	1.15403548955	;
	56	61	0.001408725	0.01283082	0.041644479	904	904	904	0	0	1	-30	30	35.0332533866	-43.8326249574	-34.9910439417	40.0662322031	;
	57	60	0.001430752	0.01303144	0.042295623	904	904	904	0	0	1	-30	30	-234.073211935	1.71919052629	234.860973238	1.23174113406	;
	57	97	0.000552148	0.005913329	0.498094995	2172	2172	2172	0	0	1	-30	30	-1106.26952429	9.19122616305	1113.0646566	13.6908085985	;
	58	59	6.17e-05	0.00066	0.501	6516	6516	6516	0	0	1	-30	30	-3514.41420259	179.000409973	3522.01917556	-148.077936295	;
	58	63	0.00017	0.00182	0.613	4344	4344	4344	0	0	1	-30	30	1739.6204659	-212.732684719	-1734.44768114	206.425499132	;
	60	63	0.000254942	0.002730347	0.229984176	2172	2172	2172	0	0	1	-30	30	-497.566021471	-55.7160301349	498.200878085	39.4110064918	;
	60	100	0.000568608	0.006089613	0.512943851	2172	2172	2172	0	0	1	-30	30	-1081.99936145	27.1464050518	1088.65855886	-7.48976613747	;
	61	62	0.000190755	0.001737417	0.022556263	1808	1808	1808	0	0	1	-30	30	-377.941954722	-64.6140804308	378.22166334	64.8982444182	;
	62	63	6.31e-05	0.00202596	4.125535352	14580	14580	14580	0	0	1	-30	30	-2616.50336671	-102.368655492	2620.80732785	-174.571625968	;
	62	64	0.00024797	0.002655684	0.223695124	2172	2172	2172	0	0	1	-30	30	-653.562740566	130.627186036	654.665975755	-141.255805991	;
	63	97	0.001705746	0.015536123	0.050424972	904	904	904	0	0	1	-30	30	-138.060061906	11.6975368525	138.386306646	-13.8065922863	;
	64	96	0.001229987	0.011202852	0.036360649	904	904	904	0	0	1	-30	30	-401.667041498	29.2365906151	403.660654124	-14.7285421791	;
	64	98	0.00145865	0.013285543	0.043120356	904	904	904	0	0	1	-30	30	47.3491242176	20.9055794191	-47.3087166569	-24.8392646622	;
	64	99	0.00122871	0.011191219	0.036322892	904	904	904	0	0	1	-30	30	95.5214251966	36.3322866325	-95.3916034928	-38.767479034	;
	64	102	0.00020466	0.002191839	0.73849704	4344	4344	4344	0	0	1	-30	30	-917.951663501	3.36479033153	919.67722186	-58.921713584	;
	65	68	0.001222283	0.011132689	0.036132921	904	904	904	0	0	1	-30	30	-281.67190571	12.5021198029	282.666245411	-6.98707904237	;
	65	69	0.003164497	0.028822584	0.093548306	904	904	904	0	0	1	-30	30	195.395999053	-24.4553721906	-194.147545813	26.668261335	;
	66	67	0.001903714	0.01733923	0.056277244	904	904	904	0	0	1	-30	30	-254.893160092	58.7881712218	256.210900232	-52.3498134558	;
	66	70	0.001986687	0.018094956	0.058730073	904	904	904	0	0	1	-30	30	-10.4156067353	0.45974236195	10.4180043472	-6.26982731234	;
	67	69	0.001285688	0.011710181	0.038007266	904	904	904	0	0	1	-30	30	-281.047732568	49.6140281977	282.114564829	-43.6296045553	;
	68	69	0.00309092	0.02815243	0.091373212	904	904	904	0	0	1	-30	30	312.861587184	-20.4922928518	-309.774175092	39.6459442435	;
	68	71	0.000542799	0.0058132	0.489660838	2172	2172	2172	0	0	1	-30	30	-623.072155893	23.1600145757	625.229253823	-48.2317485825	;
	69	72	0.003845431	0.035024597	0.113677932	904	904	904	0	0	1	-30	30	188.419551997	-27.1791028404	-187.008430172	28.8596822168	;
	70	72	0.001924592	0.017529395	0.056894456	904	904	904	0	0	1	-30	30	-53.9701538349	24.0186265743	54.0406009241	-29.0038069401	;
	71	73	0.000429713	0.004602092	0.387646086	2172	2172	2172	0	0	1	-30	30	-631.838733475	18.3704570039	633.586252785	-37.8984751555	;
	71	78	0.005029715	0.045811184	0.148687523	904	904	904	0	0	1	-30	30	281.617254697	-41.8216160206	-277.507297808	64.4544983464	;
	72	74	0.001850173	0.016851572	0.054694473	904	904	904	0	0	1	-30	30	35.3623789052	-9.61642042992	-35.3379997738	4.44606288052	;
	73	75	0.000154736	0.001657168	0.139587554	2172	2172	2172	0	0	1	-30	30	-2091.30106918	64.3139646028	2098.15878655	-4.69846728339	;
	73	76	0.003400257	0.030969904	0.100517777	904	904	904	0	0	1	-30	30	291.623454579	-0.337577258255	-288.695813311	17.1439661202	;
	73	79	0.005323371	0.048485836	0.157368535	904	904	904	0	0	1	-30	30	278.627266539	-5.48756399418	-274.44400458	28.1452148274	;
	73	80	0.003287737	0.029945065	0.097191498	904	904	904	0	0	1	-30	30	172.029222581	-59.8152416263	-170.9436949	59.9803158116	;
	73	81	0.001180594	0.012643784	1.065018618	2172	2172	2172	0	0	1	-30	30	1505.00511484	-22.5575163084	-1477.92805372	207.650006506	;
	74	77	0.001050785	0.009570661	0.03106311	904	904	904	0	0	1	-30	30	262.081715308	-10.6154510937	-261.349167934	14.228214906	;
	74	78	0.003080612	0.028058549	0.091068507	904	904	904	0	0	1	-30	30	-247.947691548	-2.84479634836	249.86770089	11.2610764626	;
	75	82	0.000690812	0.007398375	0.623184303	2172	2172	2172	0	0	1	-30	30	428.287965233	-253.487134575	-426.667875799	208.053676815	;
	76	79	0.00216439	0.019713499	0.063983315	904	904	904	0	0	1	-30	30	224.390556888	-25.4717717277	-223.260145502	29.5343176842	;
	77	81	0.002745828	0.0250093	0.081171682	904	904	904	0	0	1	-30	30	-242.597838364	33.3838716388	244.280274963	-26.0357886568	;
	78	81	0.002422622	0.022065501	0.071617111	904	904	904	0	0	1	-30	30	151.610900551	36.7199274126	-151.018069327	-38.4376394308	;
	79	80	0.003522928	0.032087205	0.104144155	904	904	904	0	0	1	-30	30	-263.76239376	-23.4024867293	266.288827422	36.0646715037	;
	79	81	0.001905365	0.017354266	0.056326045	904	904	904	0	0	1	-30	30	311.027063715	-48.2592334987	-309.095704575	60.3398124574	;
	79	83	0.001772751	0.016146406	0.052405742	904	904	904	0	0	1	-30	30	298.925701519	-1.1691852598	-297.300637831	10.8845603239	;
	80	82	3.61e-05	0.00115912	2.360357594	14580	14580	14580	0	0	1	-30	30	-4866.4961464	-220.972690189	4874.94281364	252.106809344	;
	81	84	0.00122041	0.011115623	0.144310127	1808	1808	1808	0	0	1	-30	30	885.624004063	-83.9509365204	-875.801370959	159.207777388	;
	81	86	0.000662535	0.007095536	0.59767536	2172	2172	2172	0	0	1	-30	30	-659.470704181	-28.9595118407	662.405406488	1.38096978266	;
	82	85	0.004627741	0.042149964	0.136804449	904	904	904	0	0	1	-30	30	335.286257218	19.5428136765	-330.162131287	13.381062753	;
	82	86	0.000927929	0.009937818	0.837088105	2172	2172	2172	0	0	1	-30	30	1512.90537507	74.154991613	-1491.99159456	65.5137783062	;
	82	94	0.005001876	0.045557628	0.147864567	904	904	904	0	0	1	-30	30	144.418053775	0.426520511082	-143.393798576	-6.07494508999	;
	83	89	0.003668123	0.033409661	0.108436396	904	904	904	0	0	1	-30	30	46.3820347002	-35.9767585425	-46.264487572	26.4757419335	;
	85	86	0.000987046	0.00899012	0.029178874	904	904	904	0	0	1	-30	30	93.8371506486	-37.0135560967	-93.7365540364	35.0397802045	;
	86	87	0.000301405	0.003227955	0.271898989	2172	2172	2172	0	0	1	-30	30	477.720785138	-61.7171183709	-477.020853551	42.2135529339	;
	86	89	0.003643968	0.033189659	0.107722346	904	904	904	0	0	1	-30	30	172.895401061	-5.56833184773	-171.798173938	4.91671638202	;
	86	90	0.002477336	0.022563841	0.073234554	904	904	904	0	0	1	-30	30	53.9655457892	-7.67884771793	-53.8924648778	1.07657270526	;
	86	92	0.000752885	0.008063158	0.67918067	2172	2172	2172	0	0	1	-30	30	-12.6835784899	-50.1127397917	12.6868380968	-17.3752907419	;
	87	90	0.002118269	0.019293421	0.062619884	904	904	904	0	0	1	-30	30	-16.4698039622	1.77102856667	16.4760970297	-7.92969384527	;
	87	95	0.000515412	0.005519901	0.464955523	2172	2172	2172	0	0	1	-30	30	231.708104225	-52.2461626472	-231.425092244	9.07264383493	;
	88	92	0.001978682	0.018022046	0.058493431	904	904	904	0	0	1	-30	30	679.418775	4.74743081958	-670.376431465	71.7447586167	;
	88	94	0.002833759	0.025810183	0.083771075	904	904	904	0	0	1	-30	30	151.912556648	-6.23611486161	-151.265115969	3.69543518359	;
	89	93	0.001483845	0.013515018	0.043865152	904	904	904	0	0	1	-30	30	368.004453134	-40.4229242206	-365.93946607	54.9118045528	;
	90	92	0.002453205	0.022344057	0.072521209	904	904	904	0	0	1	-30	30	-59.1576093924	-4.61471544764	59.2441745105	-1.80424284809	;
	91	147	0.00275034	0.025050396	0.081305066	904	904	904	0	0	1	-30	30	-123.303106836	14.5711139748	123.731722255	-18.7739534745	;
	92	95	0.000460572	0.004932573	0.415483409	2172	2172	2172	0	0	1	-30	30	593.953883784	-53.4933436623	-592.316913905	29.6874512499	;
	93	102	0.004195747	0.038215319	0.124033929	904	904	904	0	0	1	-30	30	90.1792035742	-37.8694682232	-89.7901002569	29.0758294631	;
	93	149	0.002966654	0.027020609	0.087699707	904	904	904	0	0	1	-30	30	62.6138286452	3.97166872417	-62.4937588502	-11.487642833	;
	94	150	0.00258422	0.023537359	0.076394262	904	904	904	0	0	1	-30	30	549.544952747	-1.55824674072	-541.773191527	64.7209003725	;
	95	146	0.001216475	0.011079788	0.035961223	904	904	904	0	0	1	-30	30	361.64656632	7.40276062052	-360.045308476	3.62280704035	;
...